Circuit: * F:\Downloaded_Documents\Sharif\EE\Princ_of_electronics\Project\Simulations\Draft2.asc

Direct Newton iteration failed to find .op point.  (Use ".option noopiter" to skip.)
Starting Gmin stepping
Gmin = 10
vernier = 0.5
vernier = 0.25
vernier = 0.125
Gmin = 5.5165
vernier = 0.0625
vernier = 0.03125
vernier = 0.015625
vernier = 0.0078125
Gmin = 5.49501
vernier = 0.00390625
vernier = 0.00195313
vernier = 0.000976563
vernier = 0.000488281
Gmin = 5.50104
Gmin = 0
Gmin stepping succeeded in finding the operating point.


Date: Tue Jul 09 15:28:16 2019
Total elapsed time: 0.119 seconds.

tnom = 27
temp = 27
method = modified trap
totiter = 8878
traniter = 7396
tranpoints = 3699
accept = 2839
rejected = 860
matrix size = 33
fillins = 62
solver = Normal
Matrix Compiler1: 4.65 KB object code size  0.7/0.4/[0.2]
Matrix Compiler2: 3.75 KB object code size  0.6/0.5/[0.4]

