Circuit: * F:\Downloaded_Documents\Sharif\EE\Princ_of_electronics\Project\Filters.asc

Early termination of direct N-R iteration.
Direct Newton iteration failed to find .op point.  (Use ".option noopiter" to skip.)
Starting Gmin stepping
Gmin = 10
vernier = 0.5
vernier = 0.25
vernier = 0.125
Gmin = 5.5165
vernier = 0.0625
vernier = 0.03125
vernier = 0.015625
vernier = 0.0078125
Gmin = 5.48432
vernier = 0.00390625
vernier = 0.00195313
vernier = 0.000976563
vernier = 0.000488281
Gmin = 5.48231
Gmin = 0
Gmin stepping failed

Starting source stepping with srcstepmethod=0
Source Step = 3.0303%
Source Step = 12.1212%
Source Step = 19.697%
Source Step = 27.2727%
Source Step = 34.8485%
Source Step = 42.4242%
vernier = 0.375
Source Step = 52.6515%
Source Step = 64.0152%
Source Step = 75.3788%
Source Step = 86.7424%
Source Step = 98.1061%
Source stepping succeeded in finding the operating point.

N-Period=1
Fourier components of V(out1)
DC component:7.94203

Harmonic	Frequency	 Fourier 	Normalized	 Phase  	Normalized
 Number 	  [Hz]   	Component	 Component	[degree]	Phase [deg]
    1   	5.000e+03	1.182e+00	1.000e+00	  -86.28°	    0.00°
    2   	1.000e+04	1.014e-02	8.584e-03	  -85.51°	    0.77°
    3   	1.500e+04	1.164e-02	9.853e-03	   96.55°	  182.83°
    4   	2.000e+04	1.468e-02	1.242e-02	  -81.05°	    5.23°
    5   	2.500e+04	2.187e-02	1.851e-02	  101.00°	  187.28°
    6   	3.000e+04	5.403e-02	4.573e-02	  -76.79°	    9.49°
    7   	3.500e+04	7.585e-02	6.420e-02	  -74.64°	   11.64°
    8   	4.000e+04	2.032e-02	1.720e-02	  107.44°	  193.72°
    9   	4.500e+04	1.119e-02	9.472e-03	  -70.32°	   15.96°
Total Harmonic Distortion: 8.523636%(8.603635%)



Date: Fri Jun 14 13:59:42 2019
Total elapsed time: 15.986 seconds.

tnom = 27
temp = 27
method = modified trap
totiter = 586492
traniter = 584414
tranpoints = 249925
accept = 191511
rejected = 58414
matrix size = 192
fillins = 655
solver = Normal
Thread vector: 23.5/11.0[5] 5.9/4.4[5] 13.0/5.4[5] 1.5/2.3[1]  2592/500
Matrix Compiler1: 44.21 KB object code size  8.5/3.7/[1.8]
Matrix Compiler2: 28.88 KB object code size  5.6/5.1/[1.8]

