Circuit: * F:\Downloaded_Documents\Sharif\EE\Princ_of_electronics\Project\lowPass.asc

WARNING: Less than two connections to node AC.  This node is used by V1.
WARNING: Less than two connections to node COMP.  This node is used by A1.
Early termination of direct N-R iteration.
Direct Newton iteration failed to find .op point.  (Use ".option noopiter" to skip.)
Starting Gmin stepping
Gmin = 10
vernier = 0.5
vernier = 0.25
vernier = 0.125
Gmin = 5.5165
vernier = 0.0625
vernier = 0.03125
vernier = 0.015625
vernier = 0.0078125
Gmin = 5.48432
vernier = 0.00390625
vernier = 0.00195313
vernier = 0.000976563
vernier = 0.000488281
Gmin = 5.48231
Gmin = 0
Gmin stepping failed

Starting source stepping with srcstepmethod=0
Source Step = 3.0303%
Source Step = 33.3333%
Source Step = 63.6364%
Source Step = 81.8182%
Source Step = 89.3939%
Source Step = 96.9697%
Source stepping succeeded in finding the operating point.

N-Period=1
Fourier components of V(out1)
DC component:7.95096

Harmonic	Frequency	 Fourier 	Normalized	 Phase  	Normalized
 Number 	  [Hz]   	Component	 Component	[degree]	Phase [deg]
    1   	5.000e+03	2.390e+00	1.000e+00	  -86.34°	    0.00°
    2   	1.000e+04	9.627e-03	4.028e-03	   83.01°	  169.35°
    3   	1.500e+04	1.117e-02	4.672e-03	  -98.81°	  -12.47°
    4   	2.000e+04	1.416e-02	5.924e-03	   76.61°	  162.95°
    5   	2.500e+04	2.119e-02	8.865e-03	 -107.17°	  -20.83°
    6   	3.000e+04	5.315e-02	2.224e-02	   70.02°	  156.37°
    7   	3.500e+04	7.569e-02	3.167e-02	   67.14°	  153.48°
    8   	4.000e+04	2.058e-02	8.610e-03	 -115.77°	  -29.42°
    9   	4.500e+04	1.155e-02	4.833e-03	   62.62°	  148.96°
Total Harmonic Distortion: 4.179121%(4.227122%)



Date: Tue May 28 23:10:01 2019
Total elapsed time: 4.161 seconds.

tnom = 27
temp = 27
method = modified trap
totiter = 368524
traniter = 366597
tranpoints = 161773
accept = 127195
rejected = 34578
matrix size = 75
fillins = 233
solver = Normal
Matrix Compiler1: 18.29 KB object code size  2.9/1.4/[0.7]
Matrix Compiler2: 10.45 KB object code size  3.9/4.5/[0.4]

